/*--------------------------------*- C++ -*----------------------------------*\
| =========                 |                                                 |
| \\      /  F ield         | OpenFOAM: The Open Source CFD Toolbox           |
|  \\    /   O peration     | Version:  5.0                                   |
|   \\  /    A nd           | Web:      www.OpenFOAM.org                      |
|    \\/     M anipulation  |                                                 |
\*---------------------------------------------------------------------------*/
FoamFile
{
    version     2.0;
    format      ascii;
    class       pointVectorField;
    location    "0";
    object      T;
}
// * * * * * * * * * * * * * * * * * * * * * * * * * * * * * * * * * * * * * //

dimensions      [0 0 0 1 0 0 0];

internalField   uniform (0 0 0);

boundaryField
{
    inlet
    {
        type            fixedValue;
        value        uniform (0 0 0);
    }
    outlet
    {
        type            fixedValue;
        value        uniform (0 0 0);
    }
    ffmaxy
    {
        type            symmetryPlane;
    }
    ffminy
    {
        type            symmetryPlane;
    }
    ffmaxz
    {
        type            symmetryPlane;
    }
    ffminz
    {
        type            fixedValue;
        value           uniform (0 0 0);
    }
    ahmed_body
    {
        type            fixedValue;
        value        uniform (0 0 0);
    }
    ahmed_body_front_h
    {
        type            fixedValue;
        value        uniform (0 0 0);
    }
    ahmed_body_front_v
    {
        type            fixedValue;
        value        uniform (0 0 0);
    }
    ahmed_stilts
    {
        type            fixedValue;
        value        uniform (0 0 0);
    }
}


// ************************************************************************* //
